/*--------------------------------*- C++ -*----------------------------------*\
| =========                 |                                                 |
| \\      /  F ield         | OpenFOAM: The Open Source CFD Toolbox           |
|  \\    /   O peration     | Version:  2412                                  |
|   \\  /    A nd           | Website:  www.openfoam.com                      |
|    \\/     M anipulation  |                                                 |
\*---------------------------------------------------------------------------*/
FoamFile
{
    version     2.0;
    format      ascii;
    arch        "LSB;label=32;scalar=64";
    class       polyBoundaryMesh;
    location    "constant/polyMesh";
    object      boundary;
}
// * * * * * * * * * * * * * * * * * * * * * * * * * * * * * * * * * * * * * //

10
(
    walls
    {
        type            wall;
        inGroups        1(wall);
        nFaces          162;
        startFace       111177;
    }
    inlet
    {
        type            patch;
        nFaces          0;
        startFace       111339;
    }
    outlet
    {
        type            patch;
        nFaces          0;
        startFace       111339;
    }
    frontandback
    {
        type            empty;
        inGroups        1(empty);
        nFaces          114764;
        startFace       111339;
    }
    fixedWalls_inorganic
    {
        type            wall;
        inGroups        1(wall);
        nFaces          4275;
        startFace       226103;
    }
    fixedWalls_organic
    {
        type            wall;
        inGroups        1(wall);
        nFaces          321;
        startFace       230378;
    }
    fixedWalls_clay
    {
        type            wall;
        inGroups        1(wall);
        nFaces          238;
        startFace       230699;
    }
    procBoundary4to1
    {
        type            processor;
        inGroups        1(processor);
        nFaces          48;
        startFace       230937;
        matchTolerance  0.0001;
        transform       unknown;
        myProcNo        4;
        neighbProcNo    1;
    }
    procBoundary4to5
    {
        type            processor;
        inGroups        1(processor);
        nFaces          69;
        startFace       230985;
        matchTolerance  0.0001;
        transform       unknown;
        myProcNo        4;
        neighbProcNo    5;
    }
    procBoundary4to7
    {
        type            processor;
        inGroups        1(processor);
        nFaces          100;
        startFace       231054;
        matchTolerance  0.0001;
        transform       unknown;
        myProcNo        4;
        neighbProcNo    7;
    }
)

// ************************************************************************* //
