/*--------------------------------*- C++ -*----------------------------------*\
| =========                 |                                                 |
| \\      /  F ield         | OpenFOAM: The Open Source CFD Toolbox           |
|  \\    /   O peration     | Version:  2412                                  |
|   \\  /    A nd           | Website:  www.openfoam.com                      |
|    \\/     M anipulation  |                                                 |
\*---------------------------------------------------------------------------*/
FoamFile
{
    version     2.0;
    format      ascii;
    arch        "LSB;label=32;scalar=64";
    class       polyBoundaryMesh;
    location    "constant/polyMesh";
    object      boundary;
}
// * * * * * * * * * * * * * * * * * * * * * * * * * * * * * * * * * * * * * //

8
(
    walls
    {
        type            wall;
        inGroups        1(wall);
        nFaces          82;
        startFace       112613;
    }
    inlet
    {
        type            patch;
        nFaces          0;
        startFace       112695;
    }
    outlet
    {
        type            patch;
        nFaces          0;
        startFace       112695;
    }
    frontandback
    {
        type            empty;
        inGroups        1(empty);
        nFaces          115800;
        startFace       112695;
    }
    fixedWalls
    {
        type            wall;
        inGroups        1(wall);
        nFaces          4296;
        startFace       228495;
    }
    procBoundary0to1
    {
        type            processor;
        inGroups        1(processor);
        nFaces          52;
        startFace       232791;
        matchTolerance  0.0001;
        transform       unknown;
        myProcNo        0;
        neighbProcNo    1;
    }
    procBoundary0to3
    {
        type            processor;
        inGroups        1(processor);
        nFaces          124;
        startFace       232843;
        matchTolerance  0.0001;
        transform       unknown;
        myProcNo        0;
        neighbProcNo    3;
    }
    procBoundary0to5
    {
        type            processor;
        inGroups        1(processor);
        nFaces          32;
        startFace       232967;
        matchTolerance  0.0001;
        transform       unknown;
        myProcNo        0;
        neighbProcNo    5;
    }
)

// ************************************************************************* //
