/*--------------------------------*- C++ -*----------------------------------*\
| =========                 |                                                 |
| \\      /  F ield         | OpenFOAM: The Open Source CFD Toolbox           |
|  \\    /   O peration     | Version:  2412                                  |
|   \\  /    A nd           | Website:  www.openfoam.com                      |
|    \\/     M anipulation  |                                                 |
\*---------------------------------------------------------------------------*/
FoamFile
{
    version     2.0;
    format      ascii;
    arch        "LSB;label=32;scalar=64";
    class       polyBoundaryMesh;
    location    "constant/polyMesh";
    object      boundary;
}
// * * * * * * * * * * * * * * * * * * * * * * * * * * * * * * * * * * * * * //

10
(
    walls
    {
        type            wall;
        inGroups        1(wall);
        nFaces          180;
        startFace       111846;
    }
    inlet
    {
        type            patch;
        nFaces          0;
        startFace       112026;
    }
    outlet
    {
        type            patch;
        nFaces          0;
        startFace       112026;
    }
    frontandback
    {
        type            empty;
        inGroups        1(empty);
        nFaces          115382;
        startFace       112026;
    }
    fixedWalls
    {
        type            wall;
        inGroups        1(wall);
        nFaces          4805;
        startFace       227408;
    }
    procBoundary5to0
    {
        type            processor;
        inGroups        1(processor);
        nFaces          32;
        startFace       232213;
        matchTolerance  0.0001;
        transform       unknown;
        myProcNo        5;
        neighbProcNo    0;
    }
    procBoundary5to1
    {
        type            processor;
        inGroups        1(processor);
        nFaces          21;
        startFace       232245;
        matchTolerance  0.0001;
        transform       unknown;
        myProcNo        5;
        neighbProcNo    1;
    }
    procBoundary5to4
    {
        type            processor;
        inGroups        1(processor);
        nFaces          69;
        startFace       232266;
        matchTolerance  0.0001;
        transform       unknown;
        myProcNo        5;
        neighbProcNo    4;
    }
    procBoundary5to6
    {
        type            processor;
        inGroups        1(processor);
        nFaces          20;
        startFace       232335;
        matchTolerance  0.0001;
        transform       unknown;
        myProcNo        5;
        neighbProcNo    6;
    }
    procBoundary5to7
    {
        type            processor;
        inGroups        1(processor);
        nFaces          7;
        startFace       232355;
        matchTolerance  0.0001;
        transform       unknown;
        myProcNo        5;
        neighbProcNo    7;
    }
)

// ************************************************************************* //
