/*--------------------------------*- C++ -*----------------------------------*\
| =========                 |                                                 |
| \\      /  F ield         | OpenFOAM: The Open Source CFD Toolbox           |
|  \\    /   O peration     | Version:  2412                                  |
|   \\  /    A nd           | Website:  www.openfoam.com                      |
|    \\/     M anipulation  |                                                 |
\*---------------------------------------------------------------------------*/
FoamFile
{
    version     2.0;
    format      ascii;
    arch        "LSB;label=32;scalar=64";
    class       polyBoundaryMesh;
    location    "constant/polyMesh";
    object      boundary;
}
// * * * * * * * * * * * * * * * * * * * * * * * * * * * * * * * * * * * * * //

8
(
    walls
    {
        type            wall;
        inGroups        1(wall);
        nFaces          96;
        startFace       111095;
    }
    inlet
    {
        type            patch;
        nFaces          0;
        startFace       111191;
    }
    outlet
    {
        type            patch;
        nFaces          63;
        startFace       111191;
    }
    frontandback
    {
        type            empty;
        inGroups        1(empty);
        nFaces          115068;
        startFace       111254;
    }
    fixedWalls
    {
        type            wall;
        inGroups        1(wall);
        nFaces          5390;
        startFace       226322;
    }
    procBoundary3to0
    {
        type            processor;
        inGroups        1(processor);
        nFaces          124;
        startFace       231712;
        matchTolerance  0.0001;
        transform       unknown;
        myProcNo        3;
        neighbProcNo    0;
    }
    procBoundary3to1
    {
        type            processor;
        inGroups        1(processor);
        nFaces          59;
        startFace       231836;
        matchTolerance  0.0001;
        transform       unknown;
        myProcNo        3;
        neighbProcNo    1;
    }
    procBoundary3to2
    {
        type            processor;
        inGroups        1(processor);
        nFaces          44;
        startFace       231895;
        matchTolerance  0.0001;
        transform       unknown;
        myProcNo        3;
        neighbProcNo    2;
    }
)

// ************************************************************************* //
