/*--------------------------------*- C++ -*----------------------------------*\
| =========                 |                                                 |
| \\      /  F ield         | OpenFOAM: The Open Source CFD Toolbox           |
|  \\    /   O peration     | Version:  2412                                  |
|   \\  /    A nd           | Website:  www.openfoam.com                      |
|    \\/     M anipulation  |                                                 |
\*---------------------------------------------------------------------------*/
FoamFile
{
    version     2.0;
    format      ascii;
    arch        "LSB;label=32;scalar=64";
    class       polyBoundaryMesh;
    location    "constant/polyMesh";
    object      boundary;
}
// * * * * * * * * * * * * * * * * * * * * * * * * * * * * * * * * * * * * * //

9
(
    walls
    {
        type            wall;
        inGroups        1(wall);
        nFaces          127;
        startFace       111957;
    }
    inlet
    {
        type            patch;
        nFaces          0;
        startFace       112084;
    }
    outlet
    {
        type            patch;
        nFaces          89;
        startFace       112084;
    }
    frontandback
    {
        type            empty;
        inGroups        1(empty);
        nFaces          115114;
        startFace       112173;
    }
    fixedWalls_inorganic
    {
        type            wall;
        inGroups        1(wall);
        nFaces          4362;
        startFace       227287;
    }
    fixedWalls_organic
    {
        type            wall;
        inGroups        1(wall);
        nFaces          0;
        startFace       231649;
    }
    fixedWalls_clay
    {
        type            wall;
        inGroups        1(wall);
        nFaces          0;
        startFace       231649;
    }
    procBoundary2to1
    {
        type            processor;
        inGroups        1(processor);
        nFaces          83;
        startFace       231649;
        matchTolerance  0.0001;
        transform       unknown;
        myProcNo        2;
        neighbProcNo    1;
    }
    procBoundary2to3
    {
        type            processor;
        inGroups        1(processor);
        nFaces          44;
        startFace       231732;
        matchTolerance  0.0001;
        transform       unknown;
        myProcNo        2;
        neighbProcNo    3;
    }
)

// ************************************************************************* //
